*SPEF "ieee 1481-1999"
*DESIGN "user_project_wrapper"
*DATE "11:11:11 Fri 11 11, 1111"
*VENDOR "OpenRCX"
*PROGRAM "Parallel Extraction"
*VERSION "1.0"
*DESIGN_FLOW "NAME_SCOPE LOCAL" "PIN_CAP NONE"
*DIVIDER /
*DELIMITER :
*BUS_DELIMITER []
*T_UNIT 1 NS
*C_UNIT 1 PF
*R_UNIT 1 OHM
*L_UNIT 1 HENRY

*NAME_MAP
*1 io_in[0]
*2 io_in[10]
*3 io_in[11]
*4 io_in[12]
*5 io_in[13]
*6 io_in[14]
*7 io_in[15]
*8 io_in[16]
*9 io_in[17]
*10 io_in[18]
*11 io_in[19]
*12 io_in[1]
*13 io_in[20]
*14 io_in[21]
*15 io_in[22]
*16 io_in[23]
*17 io_in[24]
*18 io_in[25]
*19 io_in[26]
*20 io_in[27]
*21 io_in[28]
*22 io_in[29]
*23 io_in[2]
*24 io_in[30]
*25 io_in[31]
*26 io_in[32]
*27 io_in[33]
*28 io_in[34]
*29 io_in[35]
*30 io_in[36]
*31 io_in[37]
*32 io_in[3]
*33 io_in[4]
*34 io_in[5]
*35 io_in[6]
*36 io_in[7]
*37 io_in[8]
*38 io_in[9]
*39 io_oeb[0]
*40 io_oeb[10]
*41 io_oeb[11]
*42 io_oeb[12]
*43 io_oeb[13]
*44 io_oeb[14]
*45 io_oeb[15]
*46 io_oeb[16]
*47 io_oeb[17]
*48 io_oeb[18]
*49 io_oeb[19]
*50 io_oeb[1]
*51 io_oeb[20]
*52 io_oeb[21]
*53 io_oeb[22]
*54 io_oeb[23]
*55 io_oeb[24]
*56 io_oeb[25]
*57 io_oeb[26]
*58 io_oeb[27]
*59 io_oeb[28]
*60 io_oeb[29]
*61 io_oeb[2]
*62 io_oeb[30]
*63 io_oeb[31]
*64 io_oeb[32]
*65 io_oeb[33]
*66 io_oeb[34]
*67 io_oeb[35]
*68 io_oeb[36]
*69 io_oeb[37]
*70 io_oeb[3]
*71 io_oeb[4]
*72 io_oeb[5]
*73 io_oeb[6]
*74 io_oeb[7]
*75 io_oeb[8]
*76 io_oeb[9]
*77 io_out[0]
*78 io_out[10]
*79 io_out[11]
*80 io_out[12]
*81 io_out[13]
*82 io_out[14]
*83 io_out[15]
*84 io_out[16]
*85 io_out[17]
*86 io_out[18]
*87 io_out[19]
*88 io_out[1]
*89 io_out[20]
*90 io_out[21]
*91 io_out[22]
*92 io_out[23]
*93 io_out[24]
*94 io_out[25]
*95 io_out[26]
*96 io_out[27]
*97 io_out[28]
*98 io_out[29]
*99 io_out[2]
*100 io_out[30]
*101 io_out[31]
*102 io_out[32]
*103 io_out[33]
*104 io_out[34]
*105 io_out[35]
*106 io_out[36]
*107 io_out[37]
*108 io_out[3]
*109 io_out[4]
*110 io_out[5]
*111 io_out[6]
*112 io_out[7]
*113 io_out[8]
*114 io_out[9]
*115 la_data_in[0]
*116 la_data_in[10]
*117 la_data_in[11]
*118 la_data_in[12]
*119 la_data_in[13]
*120 la_data_in[14]
*121 la_data_in[15]
*122 la_data_in[16]
*123 la_data_in[17]
*124 la_data_in[18]
*125 la_data_in[19]
*126 la_data_in[1]
*127 la_data_in[20]
*128 la_data_in[21]
*129 la_data_in[22]
*130 la_data_in[23]
*131 la_data_in[24]
*132 la_data_in[25]
*133 la_data_in[26]
*134 la_data_in[27]
*135 la_data_in[28]
*136 la_data_in[29]
*137 la_data_in[2]
*138 la_data_in[30]
*139 la_data_in[31]
*140 la_data_in[32]
*141 la_data_in[33]
*142 la_data_in[34]
*143 la_data_in[35]
*144 la_data_in[36]
*145 la_data_in[37]
*146 la_data_in[38]
*147 la_data_in[39]
*148 la_data_in[3]
*149 la_data_in[40]
*150 la_data_in[41]
*151 la_data_in[42]
*152 la_data_in[43]
*153 la_data_in[44]
*154 la_data_in[45]
*155 la_data_in[46]
*156 la_data_in[47]
*157 la_data_in[48]
*158 la_data_in[49]
*159 la_data_in[4]
*160 la_data_in[50]
*161 la_data_in[51]
*162 la_data_in[52]
*163 la_data_in[53]
*164 la_data_in[54]
*165 la_data_in[55]
*166 la_data_in[56]
*167 la_data_in[57]
*168 la_data_in[58]
*169 la_data_in[59]
*170 la_data_in[5]
*171 la_data_in[60]
*172 la_data_in[61]
*173 la_data_in[62]
*174 la_data_in[63]
*175 la_data_in[6]
*176 la_data_in[7]
*177 la_data_in[8]
*178 la_data_in[9]
*179 la_data_out[0]
*180 la_data_out[10]
*181 la_data_out[11]
*182 la_data_out[12]
*183 la_data_out[13]
*184 la_data_out[14]
*185 la_data_out[15]
*186 la_data_out[16]
*187 la_data_out[17]
*188 la_data_out[18]
*189 la_data_out[19]
*190 la_data_out[1]
*191 la_data_out[20]
*192 la_data_out[21]
*193 la_data_out[22]
*194 la_data_out[23]
*195 la_data_out[24]
*196 la_data_out[25]
*197 la_data_out[26]
*198 la_data_out[27]
*199 la_data_out[28]
*200 la_data_out[29]
*201 la_data_out[2]
*202 la_data_out[30]
*203 la_data_out[31]
*204 la_data_out[32]
*205 la_data_out[33]
*206 la_data_out[34]
*207 la_data_out[35]
*208 la_data_out[36]
*209 la_data_out[37]
*210 la_data_out[38]
*211 la_data_out[39]
*212 la_data_out[3]
*213 la_data_out[40]
*214 la_data_out[41]
*215 la_data_out[42]
*216 la_data_out[43]
*217 la_data_out[44]
*218 la_data_out[45]
*219 la_data_out[46]
*220 la_data_out[47]
*221 la_data_out[48]
*222 la_data_out[49]
*223 la_data_out[4]
*224 la_data_out[50]
*225 la_data_out[51]
*226 la_data_out[52]
*227 la_data_out[53]
*228 la_data_out[54]
*229 la_data_out[55]
*230 la_data_out[56]
*231 la_data_out[57]
*232 la_data_out[58]
*233 la_data_out[59]
*234 la_data_out[5]
*235 la_data_out[60]
*236 la_data_out[61]
*237 la_data_out[62]
*238 la_data_out[63]
*239 la_data_out[6]
*240 la_data_out[7]
*241 la_data_out[8]
*242 la_data_out[9]
*243 la_oenb[0]
*244 la_oenb[10]
*245 la_oenb[11]
*246 la_oenb[12]
*247 la_oenb[13]
*248 la_oenb[14]
*249 la_oenb[15]
*250 la_oenb[16]
*251 la_oenb[17]
*252 la_oenb[18]
*253 la_oenb[19]
*254 la_oenb[1]
*255 la_oenb[20]
*256 la_oenb[21]
*257 la_oenb[22]
*258 la_oenb[23]
*259 la_oenb[24]
*260 la_oenb[25]
*261 la_oenb[26]
*262 la_oenb[27]
*263 la_oenb[28]
*264 la_oenb[29]
*265 la_oenb[2]
*266 la_oenb[30]
*267 la_oenb[31]
*268 la_oenb[32]
*269 la_oenb[33]
*270 la_oenb[34]
*271 la_oenb[35]
*272 la_oenb[36]
*273 la_oenb[37]
*274 la_oenb[38]
*275 la_oenb[39]
*276 la_oenb[3]
*277 la_oenb[40]
*278 la_oenb[41]
*279 la_oenb[42]
*280 la_oenb[43]
*281 la_oenb[44]
*282 la_oenb[45]
*283 la_oenb[46]
*284 la_oenb[47]
*285 la_oenb[48]
*286 la_oenb[49]
*287 la_oenb[4]
*288 la_oenb[50]
*289 la_oenb[51]
*290 la_oenb[52]
*291 la_oenb[53]
*292 la_oenb[54]
*293 la_oenb[55]
*294 la_oenb[56]
*295 la_oenb[57]
*296 la_oenb[58]
*297 la_oenb[59]
*298 la_oenb[5]
*299 la_oenb[60]
*300 la_oenb[61]
*301 la_oenb[62]
*302 la_oenb[63]
*303 la_oenb[6]
*304 la_oenb[7]
*305 la_oenb[8]
*306 la_oenb[9]
*307 user_clock2
*308 user_irq[0]
*309 user_irq[1]
*310 user_irq[2]
*313 wb_clk_i
*314 wb_rst_i
*315 wbs_ack_o
*316 wbs_adr_i[0]
*317 wbs_adr_i[10]
*318 wbs_adr_i[11]
*319 wbs_adr_i[12]
*320 wbs_adr_i[13]
*321 wbs_adr_i[14]
*322 wbs_adr_i[15]
*323 wbs_adr_i[16]
*324 wbs_adr_i[17]
*325 wbs_adr_i[18]
*326 wbs_adr_i[19]
*327 wbs_adr_i[1]
*328 wbs_adr_i[20]
*329 wbs_adr_i[21]
*330 wbs_adr_i[22]
*331 wbs_adr_i[23]
*332 wbs_adr_i[24]
*333 wbs_adr_i[25]
*334 wbs_adr_i[26]
*335 wbs_adr_i[27]
*336 wbs_adr_i[28]
*337 wbs_adr_i[29]
*338 wbs_adr_i[2]
*339 wbs_adr_i[30]
*340 wbs_adr_i[31]
*341 wbs_adr_i[3]
*342 wbs_adr_i[4]
*343 wbs_adr_i[5]
*344 wbs_adr_i[6]
*345 wbs_adr_i[7]
*346 wbs_adr_i[8]
*347 wbs_adr_i[9]
*348 wbs_cyc_i
*349 wbs_dat_i[0]
*350 wbs_dat_i[10]
*351 wbs_dat_i[11]
*352 wbs_dat_i[12]
*353 wbs_dat_i[13]
*354 wbs_dat_i[14]
*355 wbs_dat_i[15]
*356 wbs_dat_i[16]
*357 wbs_dat_i[17]
*358 wbs_dat_i[18]
*359 wbs_dat_i[19]
*360 wbs_dat_i[1]
*361 wbs_dat_i[20]
*362 wbs_dat_i[21]
*363 wbs_dat_i[22]
*364 wbs_dat_i[23]
*365 wbs_dat_i[24]
*366 wbs_dat_i[25]
*367 wbs_dat_i[26]
*368 wbs_dat_i[27]
*369 wbs_dat_i[28]
*370 wbs_dat_i[29]
*371 wbs_dat_i[2]
*372 wbs_dat_i[30]
*373 wbs_dat_i[31]
*374 wbs_dat_i[3]
*375 wbs_dat_i[4]
*376 wbs_dat_i[5]
*377 wbs_dat_i[6]
*378 wbs_dat_i[7]
*379 wbs_dat_i[8]
*380 wbs_dat_i[9]
*381 wbs_dat_o[0]
*382 wbs_dat_o[10]
*383 wbs_dat_o[11]
*384 wbs_dat_o[12]
*385 wbs_dat_o[13]
*386 wbs_dat_o[14]
*387 wbs_dat_o[15]
*388 wbs_dat_o[16]
*389 wbs_dat_o[17]
*390 wbs_dat_o[18]
*391 wbs_dat_o[19]
*392 wbs_dat_o[1]
*393 wbs_dat_o[20]
*394 wbs_dat_o[21]
*395 wbs_dat_o[22]
*396 wbs_dat_o[23]
*397 wbs_dat_o[24]
*398 wbs_dat_o[25]
*399 wbs_dat_o[26]
*400 wbs_dat_o[27]
*401 wbs_dat_o[28]
*402 wbs_dat_o[29]
*403 wbs_dat_o[2]
*404 wbs_dat_o[30]
*405 wbs_dat_o[31]
*406 wbs_dat_o[3]
*407 wbs_dat_o[4]
*408 wbs_dat_o[5]
*409 wbs_dat_o[6]
*410 wbs_dat_o[7]
*411 wbs_dat_o[8]
*412 wbs_dat_o[9]
*413 wbs_sel_i[0]
*414 wbs_sel_i[1]
*415 wbs_sel_i[2]
*416 wbs_sel_i[3]
*417 wbs_stb_i
*418 wbs_we_i
*419 mprj

*PORTS
io_in[0] I
io_in[10] I
io_in[11] I
io_in[12] I
io_in[13] I
io_in[14] I
io_in[15] I
io_in[16] I
io_in[17] I
io_in[18] I
io_in[19] I
io_in[1] I
io_in[20] I
io_in[21] I
io_in[22] I
io_in[23] I
io_in[24] I
io_in[25] I
io_in[26] I
io_in[27] I
io_in[28] I
io_in[29] I
io_in[2] I
io_in[30] I
io_in[31] I
io_in[32] I
io_in[33] I
io_in[34] I
io_in[35] I
io_in[36] I
io_in[37] I
io_in[3] I
io_in[4] I
io_in[5] I
io_in[6] I
io_in[7] I
io_in[8] I
io_in[9] I
io_oeb[0] O
io_oeb[10] O
io_oeb[11] O
io_oeb[12] O
io_oeb[13] O
io_oeb[14] O
io_oeb[15] O
io_oeb[16] O
io_oeb[17] O
io_oeb[18] O
io_oeb[19] O
io_oeb[1] O
io_oeb[20] O
io_oeb[21] O
io_oeb[22] O
io_oeb[23] O
io_oeb[24] O
io_oeb[25] O
io_oeb[26] O
io_oeb[27] O
io_oeb[28] O
io_oeb[29] O
io_oeb[2] O
io_oeb[30] O
io_oeb[31] O
io_oeb[32] O
io_oeb[33] O
io_oeb[34] O
io_oeb[35] O
io_oeb[36] O
io_oeb[37] O
io_oeb[3] O
io_oeb[4] O
io_oeb[5] O
io_oeb[6] O
io_oeb[7] O
io_oeb[8] O
io_oeb[9] O
io_out[0] O
io_out[10] O
io_out[11] O
io_out[12] O
io_out[13] O
io_out[14] O
io_out[15] O
io_out[16] O
io_out[17] O
io_out[18] O
io_out[19] O
io_out[1] O
io_out[20] O
io_out[21] O
io_out[22] O
io_out[23] O
io_out[24] O
io_out[25] O
io_out[26] O
io_out[27] O
io_out[28] O
io_out[29] O
io_out[2] O
io_out[30] O
io_out[31] O
io_out[32] O
io_out[33] O
io_out[34] O
io_out[35] O
io_out[36] O
io_out[37] O
io_out[3] O
io_out[4] O
io_out[5] O
io_out[6] O
io_out[7] O
io_out[8] O
io_out[9] O
la_data_in[0] I
la_data_in[10] I
la_data_in[11] I
la_data_in[12] I
la_data_in[13] I
la_data_in[14] I
la_data_in[15] I
la_data_in[16] I
la_data_in[17] I
la_data_in[18] I
la_data_in[19] I
la_data_in[1] I
la_data_in[20] I
la_data_in[21] I
la_data_in[22] I
la_data_in[23] I
la_data_in[24] I
la_data_in[25] I
la_data_in[26] I
la_data_in[27] I
la_data_in[28] I
la_data_in[29] I
la_data_in[2] I
la_data_in[30] I
la_data_in[31] I
la_data_in[32] I
la_data_in[33] I
la_data_in[34] I
la_data_in[35] I
la_data_in[36] I
la_data_in[37] I
la_data_in[38] I
la_data_in[39] I
la_data_in[3] I
la_data_in[40] I
la_data_in[41] I
la_data_in[42] I
la_data_in[43] I
la_data_in[44] I
la_data_in[45] I
la_data_in[46] I
la_data_in[47] I
la_data_in[48] I
la_data_in[49] I
la_data_in[4] I
la_data_in[50] I
la_data_in[51] I
la_data_in[52] I
la_data_in[53] I
la_data_in[54] I
la_data_in[55] I
la_data_in[56] I
la_data_in[57] I
la_data_in[58] I
la_data_in[59] I
la_data_in[5] I
la_data_in[60] I
la_data_in[61] I
la_data_in[62] I
la_data_in[63] I
la_data_in[6] I
la_data_in[7] I
la_data_in[8] I
la_data_in[9] I
la_data_out[0] O
la_data_out[10] O
la_data_out[11] O
la_data_out[12] O
la_data_out[13] O
la_data_out[14] O
la_data_out[15] O
la_data_out[16] O
la_data_out[17] O
la_data_out[18] O
la_data_out[19] O
la_data_out[1] O
la_data_out[20] O
la_data_out[21] O
la_data_out[22] O
la_data_out[23] O
la_data_out[24] O
la_data_out[25] O
la_data_out[26] O
la_data_out[27] O
la_data_out[28] O
la_data_out[29] O
la_data_out[2] O
la_data_out[30] O
la_data_out[31] O
la_data_out[32] O
la_data_out[33] O
la_data_out[34] O
la_data_out[35] O
la_data_out[36] O
la_data_out[37] O
la_data_out[38] O
la_data_out[39] O
la_data_out[3] O
la_data_out[40] O
la_data_out[41] O
la_data_out[42] O
la_data_out[43] O
la_data_out[44] O
la_data_out[45] O
la_data_out[46] O
la_data_out[47] O
la_data_out[48] O
la_data_out[49] O
la_data_out[4] O
la_data_out[50] O
la_data_out[51] O
la_data_out[52] O
la_data_out[53] O
la_data_out[54] O
la_data_out[55] O
la_data_out[56] O
la_data_out[57] O
la_data_out[58] O
la_data_out[59] O
la_data_out[5] O
la_data_out[60] O
la_data_out[61] O
la_data_out[62] O
la_data_out[63] O
la_data_out[6] O
la_data_out[7] O
la_data_out[8] O
la_data_out[9] O
la_oenb[0] I
la_oenb[10] I
la_oenb[11] I
la_oenb[12] I
la_oenb[13] I
la_oenb[14] I
la_oenb[15] I
la_oenb[16] I
la_oenb[17] I
la_oenb[18] I
la_oenb[19] I
la_oenb[1] I
la_oenb[20] I
la_oenb[21] I
la_oenb[22] I
la_oenb[23] I
la_oenb[24] I
la_oenb[25] I
la_oenb[26] I
la_oenb[27] I
la_oenb[28] I
la_oenb[29] I
la_oenb[2] I
la_oenb[30] I
la_oenb[31] I
la_oenb[32] I
la_oenb[33] I
la_oenb[34] I
la_oenb[35] I
la_oenb[36] I
la_oenb[37] I
la_oenb[38] I
la_oenb[39] I
la_oenb[3] I
la_oenb[40] I
la_oenb[41] I
la_oenb[42] I
la_oenb[43] I
la_oenb[44] I
la_oenb[45] I
la_oenb[46] I
la_oenb[47] I
la_oenb[48] I
la_oenb[49] I
la_oenb[4] I
la_oenb[50] I
la_oenb[51] I
la_oenb[52] I
la_oenb[53] I
la_oenb[54] I
la_oenb[55] I
la_oenb[56] I
la_oenb[57] I
la_oenb[58] I
la_oenb[59] I
la_oenb[5] I
la_oenb[60] I
la_oenb[61] I
la_oenb[62] I
la_oenb[63] I
la_oenb[6] I
la_oenb[7] I
la_oenb[8] I
la_oenb[9] I
user_clock2 I
user_irq[0] O
user_irq[1] O
user_irq[2] O
wb_clk_i I
wb_rst_i I
wbs_ack_o O
wbs_adr_i[0] I
wbs_adr_i[10] I
wbs_adr_i[11] I
wbs_adr_i[12] I
wbs_adr_i[13] I
wbs_adr_i[14] I
wbs_adr_i[15] I
wbs_adr_i[16] I
wbs_adr_i[17] I
wbs_adr_i[18] I
wbs_adr_i[19] I
wbs_adr_i[1] I
wbs_adr_i[20] I
wbs_adr_i[21] I
wbs_adr_i[22] I
wbs_adr_i[23] I
wbs_adr_i[24] I
wbs_adr_i[25] I
wbs_adr_i[26] I
wbs_adr_i[27] I
wbs_adr_i[28] I
wbs_adr_i[29] I
wbs_adr_i[2] I
wbs_adr_i[30] I
wbs_adr_i[31] I
wbs_adr_i[3] I
wbs_adr_i[4] I
wbs_adr_i[5] I
wbs_adr_i[6] I
wbs_adr_i[7] I
wbs_adr_i[8] I
wbs_adr_i[9] I
wbs_cyc_i I
wbs_dat_i[0] I
wbs_dat_i[10] I
wbs_dat_i[11] I
wbs_dat_i[12] I
wbs_dat_i[13] I
wbs_dat_i[14] I
wbs_dat_i[15] I
wbs_dat_i[16] I
wbs_dat_i[17] I
wbs_dat_i[18] I
wbs_dat_i[19] I
wbs_dat_i[1] I
wbs_dat_i[20] I
wbs_dat_i[21] I
wbs_dat_i[22] I
wbs_dat_i[23] I
wbs_dat_i[24] I
wbs_dat_i[25] I
wbs_dat_i[26] I
wbs_dat_i[27] I
wbs_dat_i[28] I
wbs_dat_i[29] I
wbs_dat_i[2] I
wbs_dat_i[30] I
wbs_dat_i[31] I
wbs_dat_i[3] I
wbs_dat_i[4] I
wbs_dat_i[5] I
wbs_dat_i[6] I
wbs_dat_i[7] I
wbs_dat_i[8] I
wbs_dat_i[9] I
wbs_dat_o[0] O
wbs_dat_o[10] O
wbs_dat_o[11] O
wbs_dat_o[12] O
wbs_dat_o[13] O
wbs_dat_o[14] O
wbs_dat_o[15] O
wbs_dat_o[16] O
wbs_dat_o[17] O
wbs_dat_o[18] O
wbs_dat_o[19] O
wbs_dat_o[1] O
wbs_dat_o[20] O
wbs_dat_o[21] O
wbs_dat_o[22] O
wbs_dat_o[23] O
wbs_dat_o[24] O
wbs_dat_o[25] O
wbs_dat_o[26] O
wbs_dat_o[27] O
wbs_dat_o[28] O
wbs_dat_o[29] O
wbs_dat_o[2] O
wbs_dat_o[30] O
wbs_dat_o[31] O
wbs_dat_o[3] O
wbs_dat_o[4] O
wbs_dat_o[5] O
wbs_dat_o[6] O
wbs_dat_o[7] O
wbs_dat_o[8] O
wbs_dat_o[9] O
wbs_sel_i[0] I
wbs_sel_i[1] I
wbs_sel_i[2] I
wbs_sel_i[3] I
wbs_stb_i I
wbs_we_i I

*D_NET *1 0.351819
*CONN
*P io_in[0] I
*I *419:io_in[0] I *D user_proj
*CAP
1 io_in[0] 0.00477274
2 *419:io_in[0] 0.00023556
3 *1:12 0.0958614
4 *1:11 0.0956258
5 *1:9 0.0675934
6 *1:7 0.0723661
7 *419:io_in[0] *62:11 0.000324263
8 *1:9 la_data_out[19] 0.000424014
9 *1:9 la_data_out[20] 0.00311915
10 *1:9 *118:10 0.00311841
11 *1:9 *120:8 0
12 *1:9 *122:10 0.000673498
13 *1:9 *123:10 0
14 *1:9 *130:14 0.00405971
15 *1:9 *132:8 0.00111314
16 *1:9 *134:8 0
17 *1:9 *136:8 0.00152554
18 *1:9 *138:10 0
19 *1:9 *158:8 0
20 *1:9 *178:8 0
21 *1:9 *180:14 0.00100591
22 *1:9 *184:12 0
23 *1:9 *242:12 0
24 *1:9 *267:8 0
25 *1:9 *275:10 0
26 *1:9 *278:8 0
27 *1:9 *297:8 0
28 *1:9 *391:10 0
29 *1:12 *26:16 0
30 *1:12 *148:11 0
31 *1:12 *159:7 0
*RES
1 io_in[0] *1:7 37.305 
2 *1:7 *1:9 542.7 
3 *1:9 *1:11 4.5 
4 *1:11 *1:12 724.05 
5 *1:12 *419:io_in[0] 1.845 
*END

*D_NET *2 0.260432
*CONN
*P io_in[10] I
*I *419:io_in[10] I *D user_proj
*CAP
1 io_in[10] 0.000255388
2 *419:io_in[10] 0.000121702
3 *2:11 0.0439989
4 *2:10 0.0438772
5 *2:8 0.00562416
6 *2:7 0.00587955
7 *2:8 *37:8 0.0336964
8 *2:11 *419:io_in[36] 0.00143928
9 *2:11 *419:io_in[37] 0.0104173
10 *2:11 *21:11 0.0511167
11 *2:11 *26:19 0.0023715
12 *2:11 *62:10 0.00703471
13 *2:11 *62:11 0.0545994
*RES
1 io_in[10] *2:7 6.525 
2 *2:7 *2:8 85.77 
3 *2:8 *2:10 4.5 
4 *2:10 *2:11 499.95 
5 *2:11 *419:io_in[10] 14.13 
*END

*D_NET *3 0.196184
*CONN
*P io_in[11] I
*I *419:io_in[11] I *D user_proj
*CAP
1 io_in[11] 0.000363112
2 *419:io_in[11] 0.00037339
3 *3:19 0.0150605
4 *3:18 0.0179105
5 *3:13 0.0492665
6 *3:11 0.0464063
7 *3:18 *74:13 0.00300489
8 *3:19 *38:19 0.0149277
9 *3:19 *58:8 0.0488708
10 *3:19 *112:8 0
*RES
1 io_in[11] *3:11 3.195 
2 *3:11 *3:13 289.17 
3 *3:13 *3:18 36.99 
4 *3:18 *3:19 205.29 
5 *3:19 *419:io_in[11] 6.705 
*END

*D_NET *4 0.270882
*CONN
*P io_in[12] I
*I *419:io_in[12] I *D user_proj
*CAP
1 io_in[12] 0.000167227
2 *419:io_in[12] 0.00618228
3 *4:13 0.0387934
4 *4:11 0.0327783
5 *419:io_in[12] *79:7 0
6 *4:13 *5:11 0
7 *4:13 *82:16 0
8 *4:13 *88:10 0.192961
*RES
1 io_in[12] *4:11 2.115 
2 *4:11 *4:13 487.53 
3 *4:13 *419:io_in[12] 44.415 
*END

*D_NET *5 0.180242
*CONN
*P io_in[13] I
*I *419:io_in[13] I *D user_proj
*CAP
1 io_in[13] 0.000470965
2 *419:io_in[13] 0.00588537
3 *5:11 0.064367
4 *5:10 0.0584817
5 *5:8 0.00438751
6 *5:7 0.00485847
7 *419:io_in[13] *42:11 0
8 *5:8 *6:8 0.00068756
9 *5:8 *43:11 0.023876
10 *5:8 *88:13 0.000647978
11 *5:11 *66:14 0
12 *5:11 *82:16 0.0165792
13 *4:13 *5:11 0
*RES
1 io_in[13] *5:7 8.325 
2 *5:7 *5:8 66.33 
3 *5:8 *5:10 4.5 
4 *5:10 *5:11 475.65 
5 *5:11 *419:io_in[13] 42.525 
*END

*D_NET *6 0.22188
*CONN
*P io_in[14] I
*I *419:io_in[14] I *D user_proj
*CAP
1 io_in[14] 0.000648266
2 *419:io_in[14] 0.00579378
3 *6:11 0.0602632
4 *6:10 0.0544695
5 *6:8 0.0101096
6 *6:7 0.0107579
7 *419:io_in[14] *44:13 0
8 *419:io_in[14] *81:16 0
9 *6:8 *43:11 0.0405798
10 *6:8 *88:13 0.00170273
11 *6:11 *50:10 0
12 *6:11 *66:14 0
13 *6:11 *80:10 0.0368678
14 *5:8 *6:8 0.00068756
*RES
1 io_in[14] *6:7 8.685 
2 *6:7 *6:8 132.75 
3 *6:8 *6:10 4.5 
4 *6:10 *6:11 469.71 
5 *6:11 *419:io_in[14] 41.895 
*END

*D_NET *7 0.175681
*CONN
*P io_in[15] I
*I *419:io_in[15] I *D user_proj
*CAP
1 io_in[15] 0.0217662
2 *419:io_in[15] 0.00254661
3 *7:13 0.00836955
4 *7:8 0.0635275
5 *7:7 0.0577046
6 *7:5 0.0217662
*RES
1 io_in[15] *7:5 167.625 
2 *7:5 *7:7 4.5 
3 *7:7 *7:8 448.29 
4 *7:8 *7:13 44.37 
5 *7:13 *419:io_in[15] 16.065 
*END

*D_NET *8 0.146302
*CONN
*P io_in[16] I
*I *419:io_in[16] I *D user_proj
*CAP
1 io_in[16] 0.000247817
2 *419:io_in[16] 0.000166616
3 *8:19 0.00866121
4 *8:18 0.0084946
5 *8:16 0.0427827
6 *8:15 0.0427827
7 *8:13 0.0214592
8 *8:11 0.021707
9 *8:19 *83:10 0
10 *8:19 *83:11 0
*RES
1 io_in[16] *8:11 2.655 
2 *8:11 *8:13 164.97 
3 *8:13 *8:15 4.5 
4 *8:15 *8:16 332.19 
5 *8:16 *8:18 4.5 
6 *8:18 *8:19 56.61 
7 *8:19 *419:io_in[16] 1.305 
*END

*D_NET *9 0.116779
*CONN
*P io_in[17] I
*I *419:io_in[17] I *D user_proj
*CAP
1 io_in[17] 0.00136798
2 *419:io_in[17] 9.76714e-05
3 *9:17 0.00968224
4 *9:16 0.00958457
5 *9:14 0.0279603
6 *9:13 0.0279603
7 *9:11 0.0192516
8 *9:10 0.0206196
9 *9:10 *46:14 0.000254726
*RES
1 io_in[17] *9:10 19.935 
2 *9:10 *9:11 148.05 
3 *9:11 *9:13 4.5 
4 *9:13 *9:14 217.35 
5 *9:14 *9:16 4.5 
6 *9:16 *9:17 64.71 
7 *9:17 *419:io_in[17] 0.765 
*END

*D_NET *10 0.10028
*CONN
*P io_in[18] I
*I *419:io_in[18] I *D user_proj
*CAP
1 io_in[18] 0.00150884
2 *419:io_in[18] 0.0023889
3 *10:19 0.00784874
4 *10:14 0.0195612
5 *10:13 0.0141013
6 *10:11 0.0213077
7 *10:10 0.0228166
8 *10:10 *46:14 0
9 *10:14 *90:10 0.0107468
*RES
1 io_in[18] *10:10 19.755 
2 *10:10 *10:11 163.17 
3 *10:11 *10:13 4.5 
4 *10:13 *10:14 101.25 
5 *10:14 *10:19 41.49 
6 *10:19 *419:io_in[18] 14.715 
*END

*D_NET *11 0.0627851
*CONN
*P io_in[19] I
*I *419:io_in[19] I *D user_proj
*CAP
1 io_in[19] 0.0021943
2 *419:io_in[19] 0.00268929
3 *11:11 0.0291982
4 *11:10 0.0287032
5 *11:11 *86:9 0
*RES
1 io_in[19] *11:10 25.695 
2 *11:10 *11:11 197.1 
3 *11:11 *419:io_in[19] 17.055 
*END

*D_NET *12 0.811227
*CONN
*P io_in[1] I
*I *419:io_in[1] I *D user_proj
*CAP
1 io_in[1] 0.000488121
2 *419:io_in[1] 0.00118816
3 *12:11 0.034429
4 *12:10 0.0332408
5 *12:8 0.0033227
6 *12:7 0.00381082
7 *419:io_in[1] *50:9 0
8 *12:8 *39:15 0.00378759
9 *12:8 *50:13 0.245529
10 *12:8 *88:13 0.253884
11 *12:8 *238:15 0
12 *12:11 *419:io_in[23] 0.000677126
13 *12:11 *35:11 0.210361
14 *12:11 *42:10 0.00131476
15 *12:11 *49:8 0.006741
16 *12:11 *51:8 0.00433585
17 *12:11 *52:8 0.000249394
18 *12:11 *57:8 0
19 *12:11 *83:10 0.00103135
20 *12:11 *92:8 0
21 *12:11 *104:8 0.00683702
*RES
1 io_in[1] *12:7 8.325 
2 *12:7 *12:8 667.17 
3 *12:8 *12:10 4.5 
4 *12:10 *12:11 566.19 
5 *12:11 *419:io_in[1] 11.205 
*END

*D_NET *13 0.0972201
*CONN
*P io_in[20] I
*I *419:io_in[20] I *D user_proj
*CAP
1 io_in[20] 0.00112276
2 *419:io_in[20] 0.0025466
3 *13:19 0.00689323
4 *13:11 0.0282326
5 *13:10 0.0238859
6 *13:8 0.013382
7 *13:7 0.0145048
8 *13:11 *47:7 0
9 *13:11 *85:7 0
10 *13:19 *44:14 0.00665227
11 *13:19 *50:10 0
*RES
1 io_in[20] *13:7 12.825 
2 *13:7 *13:8 103.59 
3 *13:8 *13:10 4.5 
4 *13:10 *13:11 180.81 
5 *13:11 *13:19 45.18 
6 *13:19 *419:io_in[20] 16.065 
*END

*D_NET *14 0.120984
*CONN
*P io_in[21] I
*I *419:io_in[21] I *D user_proj
*CAP
1 io_in[21] 0.00146537
2 *419:io_in[21] 0.000166616
3 *14:17 0.0238522
4 *14:16 0.0236856
5 *14:14 0.0299446
6 *14:13 0.0351743
7 *14:10 0.00669507
8 *14:17 *48:11 0
*RES
1 io_in[21] *14:10 19.935 
2 *14:10 *14:13 44.55 
3 *14:13 *14:14 233.73 
4 *14:14 *14:16 4.5 
5 *14:16 *14:17 172.71 
6 *14:17 *419:io_in[21] 1.305 
*END

*D_NET *15 0.246408
*CONN
*P io_in[22] I
*I *419:io_in[22] I *D user_proj
*CAP
1 io_in[22] 0.000454362
2 *419:io_in[22] 9.76714e-05
3 *15:11 0.0297435
4 *15:10 0.0296458
5 *15:8 0.0230409
6 *15:7 0.0234952
7 *15:8 *17:11 0.13993
8 *15:11 *19:14 0
*RES
1 io_in[22] *15:7 7.965 
2 *15:7 *15:8 350.19 
3 *15:8 *15:10 4.5 
4 *15:10 *15:11 218.07 
5 *15:11 *419:io_in[22] 0.765 
*END

*D_NET *16 0.20631
*CONN
*P io_in[23] I
*I *419:io_in[23] I *D user_proj
*CAP
1 io_in[23] 0.000562251
2 *419:io_in[23] 0.00112225
3 *16:11 0.0295463
4 *16:10 0.0284241
5 *16:8 0.0364655
6 *16:7 0.0370278
7 *419:io_in[23] *92:8 5.61605e-05
8 *16:8 *17:11 0.0506983
9 *16:8 *45:14 0.00118377
10 *16:8 *83:14 0.0205462
11 *16:11 *91:7 0
12 *12:11 *419:io_in[23] 0.000677126
*RES
1 io_in[23] *16:7 8.685 
2 *16:7 *16:8 463.23 
3 *16:8 *16:10 4.5 
4 *16:10 *16:11 210.87 
5 *16:11 *419:io_in[23] 17.235 
*END

*D_NET *17 0.332128
*CONN
*P io_in[24] I
*I *419:io_in[24] I *D user_proj
*CAP
1 io_in[24] 0.00212935
2 *419:io_in[24] 0.00115116
3 *17:14 0.0299051
4 *17:13 0.0287539
5 *17:11 0.0255773
6 *17:10 0.0277066
7 *419:io_in[24] *55:9 0
8 *419:io_in[24] *57:8 0.000653967
9 *419:io_in[24] *96:8 0.000341987
10 *17:11 *45:14 0.0252798
11 *17:14 *54:7 0
12 *17:14 *92:7 0
13 *15:8 *17:11 0.13993
14 *16:8 *17:11 0.0506983
*RES
1 io_in[24] *17:10 24.975 
2 *17:10 *17:11 550.89 
3 *17:11 *17:13 4.5 
4 *17:13 *17:14 213.03 
5 *17:14 *419:io_in[24] 17.775 
*END

*D_NET *18 0.218311
*CONN
*P io_in[25] I
*I *419:io_in[25] I *D user_proj
*CAP
1 io_in[25] 0.000125876
2 *419:io_in[25] 0.00256314
3 *18:16 0.0194388
4 *18:15 0.0168757
5 *18:13 0.089591
6 *18:11 0.0897169
*RES
1 io_in[25] *18:11 1.395 
2 *18:11 *18:13 566.55 
3 *18:13 *18:15 4.5 
4 *18:15 *18:16 124.38 
5 *18:16 *419:io_in[25] 16.695 
*END

*D_NET *19 0.177623
*CONN
*P io_in[26] I
*I *419:io_in[26] I *D user_proj
*CAP
1 io_in[26] 0.00177706
2 *419:io_in[26] 0.00523815
3 *19:17 0.00791949
4 *19:14 0.00806574
5 *19:9 0.073268
6 *19:7 0.0696607
7 *19:9 *86:14 0
8 *19:14 *90:7 0
9 *19:17 *44:14 0.0116935
10 *19:17 *50:10 0
11 *15:11 *19:14 0
*RES
1 io_in[26] *19:7 13.185 
2 *19:7 *19:9 530.64 
3 *19:9 *19:14 48.15 
4 *19:14 *19:17 35.73 
5 *19:17 *419:io_in[26] 33.795 
*END

*D_NET *20 0.206377
*CONN
*P io_in[27] I
*I *419:io_in[27] I *D user_proj
*CAP
1 io_in[27] 0.00035683
2 *419:io_in[27] 0.00021921
3 *20:13 0.0628462
4 *20:11 0.0629838
5 *20:13 *25:22 0.00343589
6 *20:13 *39:11 0.000141312
7 *20:13 *39:12 0.0756895
8 *20:13 *58:8 0.000704141
*RES
1 io_in[27] *20:11 3.015 
2 *20:11 *20:13 583.47 
3 *20:13 *419:io_in[27] 5.805 
*END

*D_NET *21 0.213261
*CONN
*P io_in[28] I
*I *419:io_in[28] I *D user_proj
*CAP
1 io_in[28] 0.0014284
2 *419:io_in[28] 0.000911375
3 *21:11 0.0599412
4 *21:10 0.0590299
5 *21:8 0.00817542
6 *21:7 0.00960381
7 *419:io_in[28] *26:19 0.00366791
8 *21:11 *62:11 0.0193863
9 *2:11 *21:11 0.0511167
*RES
1 io_in[28] *21:7 13.365 
2 *21:7 *21:8 62.73 
3 *21:8 *21:10 4.5 
4 *21:10 *21:11 572.85 
5 *21:11 *419:io_in[28] 23.76 
*END

*D_NET *22 0.274017
*CONN
*P io_in[29] I
*I *419:io_in[29] I *D user_proj
*CAP
1 io_in[29] 0.000177869
2 *419:io_in[29] 0.00114019
3 *22:19 0.00887862
4 *22:18 0.00773844
5 *22:16 0.0184742
6 *22:15 0.0184742
7 *22:13 0.0479027
8 *22:11 0.0480806
9 *419:io_in[29] *60:13 0
10 *22:19 *40:8 0.0559506
11 *22:19 *79:8 0.0519131
12 *22:19 *104:8 0.0152866
*RES
1 io_in[29] *22:11 1.935 
2 *22:11 *22:13 373.41 
3 *22:13 *22:15 4.5 
4 *22:15 *22:16 141.21 
5 *22:16 *22:18 4.5 
6 *22:18 *22:19 225.27 
7 *22:19 *419:io_in[29] 11.925 
*END

*D_NET *23 0.747708
*CONN
*P io_in[2] I
*I *419:io_in[2] I *D user_proj
*CAP
1 io_in[2] 0.000445006
2 *419:io_in[2] 0.00234103
3 *23:11 0.0418675
4 *23:10 0.0395265
5 *23:8 0.00318879
6 *23:7 0.0036338
7 *23:8 *32:8 0.000955931
8 *23:8 *50:13 0.240427
9 *23:8 *61:11 0.221603
10 *23:8 *238:15 0
11 *23:11 *41:8 0
12 *23:11 *63:10 0.0876131
13 *23:11 *64:10 0.0911509
14 *23:11 *73:10 0.0137397
15 *23:11 *75:14 0.00121575
*RES
1 io_in[2] *23:7 7.965 
2 *23:7 *23:8 611.73 
3 *23:8 *23:10 4.5 
4 *23:10 *23:11 559.71 
5 *23:11 *419:io_in[2] 20.295 
*END

*D_NET *24 0.274145
*CONN
*P io_in[30] I
*I *419:io_in[30] I *D user_proj
*CAP
1 io_in[30] 0.00337487
2 *419:io_in[30] 0.00140893
3 *24:19 0.0599886
4 *24:18 0.0585797
5 *24:16 0.0274318
6 *24:15 0.0308067
7 *24:15 *315:8 0
8 *24:19 *61:8 0.0830112
9 *24:19 *79:8 0
10 *24:19 *98:8 0.00954281
*RES
1 io_in[30] *24:15 31.005 
2 *24:15 *24:16 210.69 
3 *24:16 *24:18 4.5 
4 *24:18 *24:19 581.13 
5 *24:19 *419:io_in[30] 13.905 
*END

*D_NET *25 0.347298
*CONN
*P io_in[31] I
*I *419:io_in[31] I *D user_proj
*CAP
1 io_in[31] 0.00177706
2 *419:io_in[31] 0.000240538
3 *25:23 0.00195468
4 *25:22 0.0025368
5 *25:12 0.0370642
6 *25:11 0.0362415
7 *25:9 0.0466345
8 *25:7 0.0484116
9 *419:io_in[31] *63:9 0
10 *25:9 *265:8 0
11 *25:9 *352:8 0
12 *25:12 *265:5 0
13 *25:22 *39:11 0.00215786
14 *25:22 *58:8 0.00344644
15 *25:23 *38:19 0.0659262
16 *25:23 *39:12 0.0875814
17 *25:23 *58:8 0.00988929
18 *20:13 *25:22 0.00343589
*RES
1 io_in[31] *25:7 13.185 
2 *25:7 *25:9 355.14 
3 *25:9 *25:11 4.5 
4 *25:11 *25:12 270.45 
5 *25:12 *25:22 48.6313 
6 *25:22 *25:23 221.13 
7 *25:23 *419:io_in[31] 6.165 
*END

*D_NET *26 0.361189
*CONN
*P io_in[32] I
*I *419:io_in[32] I *D user_proj
*CAP
1 io_in[32] 0.000323383
2 *419:io_in[32] 0
3 *26:19 0.0157201
4 *26:18 0.0157201
5 *26:16 0.0346512
6 *26:15 0.0346512
7 *26:13 0.0496429
8 *26:11 0.0499663
9 *26:16 *96:13 0.00766241
10 *26:16 *148:11 0.0541763
11 *26:19 *62:10 0.00703471
12 *26:19 *62:11 0.0856012
13 *419:io_in[28] *26:19 0.00366791
14 *1:12 *26:16 0
15 *2:11 *26:19 0.0023715
*RES
1 io_in[32] *26:11 3.015 
2 *26:11 *26:13 376.29 
3 *26:13 *26:15 4.5 
4 *26:15 *26:16 338.13 
5 *26:16 *26:18 4.5 
6 *26:18 *26:19 245.07 
7 *26:19 *419:io_in[32] 4.5 
*END

*D_NET *27 0.410944
*CONN
*P io_in[33] I
*I *419:io_in[33] I *D user_proj
*CAP
1 io_in[33] 0.000242542
2 *419:io_in[33] 0.00184752
3 *27:19 0.00614512
4 *27:18 0.0042976
5 *27:16 0.0558178
6 *27:15 0.0558178
7 *27:13 0.0478501
8 *27:11 0.0480926
9 *27:16 *201:11 0
10 *27:19 *28:19 0.102517
11 *27:19 *71:8 0.0860324
12 *27:19 *99:8 0.00228301
*RES
1 io_in[33] *27:11 2.475 
2 *27:11 *27:13 362.61 
3 *27:13 *27:15 4.5 
4 *27:15 *27:16 418.95 
5 *27:16 *27:18 4.5 
6 *27:18 *27:19 266.31 
7 *27:19 *419:io_in[33] 16.965 
*END

*D_NET *28 0.374108
*CONN
*P io_in[34] I
*I *419:io_in[34] I *D user_proj
*CAP
1 io_in[34] 0.000177869
2 *419:io_in[34] 0.00187049
3 *28:19 0.0139883
4 *28:18 0.0121178
5 *28:16 0.0646428
6 *28:15 0.0646428
7 *28:13 0.0488331
8 *28:11 0.0490109
9 *419:io_in[34] *66:13 0
10 *28:16 *178:11 0
11 *28:19 *41:8 0.0148988
12 *28:19 *71:8 0.00140765
13 *27:19 *28:19 0.102517
*RES
1 io_in[34] *28:11 1.935 
2 *28:11 *28:13 370.71 
3 *28:13 *28:15 4.5 
4 *28:15 *28:16 486.63 
5 *28:16 *28:18 4.5 
6 *28:18 *28:19 265.77 
7 *28:19 *419:io_in[34] 17.145 
*END

*D_NET *29 0.391693
*CONN
*P io_in[35] I
*I *419:io_in[35] I *D user_proj
*CAP
1 io_in[35] 0.000113196
2 *419:io_in[35] 0.00252769
3 *29:16 0.0617939
4 *29:15 0.0592662
5 *29:13 0.0904424
6 *29:11 0.0905556
7 *419:io_in[35] *39:12 0.0132056
8 *29:16 *208:15 0.0737884
*RES
1 io_in[35] *29:11 1.395 
2 *29:11 *29:13 677.25 
3 *29:13 *29:15 4.5 
4 *29:15 *29:16 542.79 
5 *29:16 *419:io_in[35] 43.695 
*END

*D_NET *30 0.459856
*CONN
*P io_in[36] I
*I *419:io_in[36] I *D user_proj
*CAP
1 io_in[36] 0.00177706
2 *419:io_in[36] 0.000996043
3 *30:12 0.0560342
4 *30:11 0.0550382
5 *30:9 0.0890677
6 *30:7 0.0908448
7 *419:io_in[36] *419:io_in[37] 0.00833406
8 *419:io_in[36] *106:7 0.0061861
9 *30:9 *243:12 0
10 *30:12 *145:13 0.150138
11 *2:11 *419:io_in[36] 0.00143928
*RES
1 io_in[36] *30:7 13.185 
2 *30:7 *30:9 667.26 
3 *30:9 *30:11 4.5 
4 *30:11 *30:12 608.13 
5 *30:12 *419:io_in[36] 37.71 
*END

*D_NET *31 0.381051
*CONN
*P io_in[37] I
*I *419:io_in[37] I *D user_proj
*CAP
1 io_in[37] 0.000323383
2 *419:io_in[37] 0.000544532
3 *31:16 0.0894115
4 *31:15 0.088867
5 *31:13 0.0914151
6 *31:11 0.0917384
7 *31:13 *206:12 0
8 *31:13 *310:10 0
9 *31:13 *398:10 0
10 *31:16 *38:16 0
11 *419:io_in[36] *419:io_in[37] 0.00833406
12 *2:11 *419:io_in[37] 0.0104173
*RES
1 io_in[37] *31:11 3.015 
2 *31:11 *31:13 685.35 
3 *31:13 *31:15 4.5 
4 *31:15 *31:16 678.15 
5 *31:16 *419:io_in[37] 35.37 
*END

*D_NET *32 0.656573
*CONN
*P io_in[3] I
*I *419:io_in[3] I *D user_proj
*CAP
1 io_in[3] 0.00040189
2 *419:io_in[3] 0.00342124
3 *32:11 0.068869
4 *32:10 0.0654477
5 *32:8 0.00292516
6 *32:7 0.00332705
7 *32:8 *33:8 0.193404
8 *32:8 *50:13 0.000890514
9 *32:8 *61:11 0.21324
10 *32:8 *238:15 0.00412259
11 *32:11 *102:10 0.084202
12 *32:11 *110:14 0.0153654
13 *23:8 *32:8 0.000955931
*RES
1 io_in[3] *32:7 7.605 
2 *32:7 *32:8 555.93 
3 *32:8 *32:10 4.5 
4 *32:10 *32:11 551.97 
5 *32:11 *419:io_in[3] 27.765 
*END

*D_NET *33 0.587416
*CONN
*P io_in[4] I
*I *419:io_in[4] I *D user_proj
*CAP
1 io_in[4] 0.000469312
2 *419:io_in[4] 0.00488175
3 *33:11 0.0584016
4 *33:10 0.0535199
5 *33:8 0.0031436
6 *33:7 0.00361291
7 *419:io_in[4] *108:13 0
8 *33:8 *34:8 0.166268
9 *33:8 *36:8 0.000933304
10 *33:8 *50:13 0.000669977
11 *33:8 *238:15 0.00523387
12 *33:11 *44:14 0.00522072
13 *33:11 *65:8 0.0890964
14 *33:11 *81:16 0.00255966
15 *32:8 *33:8 0.193404
*RES
1 io_in[4] *33:7 7.425 
2 *33:7 *33:8 500.49 
3 *33:8 *33:10 4.5 
4 *33:10 *33:11 546.57 
5 *33:11 *419:io_in[4] 38.115 
*END

*D_NET *34 0.528696
*CONN
*P io_in[5] I
*I *419:io_in[5] I *D user_proj
*CAP