*SPEF "ieee 1481-1999"
*DESIGN "user_proj"
*DATE "11:11:11 Fri 11 11, 1111"
*VENDOR "OpenRCX"
*PROGRAM "Parallel Extraction"
*VERSION "1.0"
*DESIGN_FLOW "NAME_SCOPE LOCAL" "PIN_CAP NONE"
*DIVIDER /
*DELIMITER :
*BUS_DELIMITER []
*T_UNIT 1 NS
*C_UNIT 1 PF
*R_UNIT 1 OHM
*L_UNIT 1 HENRY

*NAME_MAP
*1 io_in[0]
*2 io_in[10]
*3 io_in[11]
*4 io_in[12]
*5 io_in[13]
*6 io_in[14]
*7 io_in[15]
*8 io_in[16]
*9 io_in[17]
*10 io_in[18]
*11 io_in[19]
*12 io_in[1]
*13 io_in[20]
*14 io_in[21]
*15 io_in[22]
*16 io_in[23]
*17 io_in[24]
*18 io_in[25]
*19 io_in[26]
*20 io_in[27]
*21 io_in[28]
*22 io_in[29]
*23 io_in[2]
*24 io_in[30]
*25 io_in[31]
*26 io_in[32]
*27 io_in[33]
*28 io_in[34]
*29 io_in[35]
*30 io_in[36]
*31 io_in[37]
*32 io_in[3]
*33 io_in[4]
*34 io_in[5]
*35 io_in[6]
*36 io_in[7]
*37 io_in[8]
*38 io_in[9]
*39 net128
*40 net295
*41 net138
*42 net139
*43 net140
*44 net141
*45 net142
*46 net143
*47 net144
*48 net296
*49 net145
*50 net129
*51 net146
*52 net147
*53 net148
*54 net149
*55 net150
*56 net151
*57 net152
*58 net153
*59 net154
*60 net155
*61 net130
*62 net297
*63 net156
*64 net157
*65 net158
*66 net159
*67 net160
*68 net161
*69 net162
*70 net131
*71 net132
*72 net133
*73 net134
*74 net135
*75 net136
*76 net137
*77 net163
*78 net173
*79 net174
*80 net175
*81 net176
*82 net177
*83 net178
*84 net179
*85 net180
*86 net181
*87 net182
*88 net164
*89 net183
*90 io_out[21]
*91 io_out[22]
*92 io_out[23]
*93 io_out[24]
*94 io_out[25]
*95 io_out[26]
*96 io_out[27]
*97 io_out[28]
*98 net184
*99 net165
*100 net185
*101 net186
*102 io_out[32]
*103 io_out[33]
*104 io_out[34]
*105 io_out[35]
*106 io_out[36]
*107 io_out[37]
*108 net166
*109 net167
*110 net168
*111 net169
*112 net170
*113 net171
*114 net172
*115 net187
*116 net188
*117 net189
*118 la_data_in[0]
*119 la_data_in[10]
*120 la_data_in[11]
*121 la_data_in[12]
*122 la_data_in[13]
*123 la_data_in[14]
*124 la_data_in[15]
*125 la_data_in[16]
*126 la_data_in[17]
*127 la_data_in[18]
*128 la_data_in[19]
*129 la_data_in[1]
*130 la_data_in[20]
*131 la_data_in[21]
*132 la_data_in[22]
*133 la_data_in[23]
*134 la_data_in[24]
*135 la_data_in[25]
*136 la_data_in[26]
*137 la_data_in[27]
*138 la_data_in[28]
*139 la_data_in[29]
*140 la_data_in[2]
*141 la_data_in[30]
*142 la_data_in[31]
*143 la_data_in[32]
*144 la_data_in[33]
*145 la_data_in[34]
*146 la_data_in[35]
*147 la_data_in[36]
*148 la_data_in[37]
*149 la_data_in[38]
*150 la_data_in[39]
*151 la_data_in[3]
*152 la_data_in[40]
*153 la_data_in[41]
*154 la_data_in[42]
*155 la_data_in[43]
*156 la_data_in[44]
*157 la_data_in[45]
*158 la_data_in[46]
*159 la_data_in[47]
*160 la_data_in[48]
*161 la_data_in[49]
*162 la_data_in[4]
*163 la_data_in[50]
*164 la_data_in[51]
*165 la_data_in[52]
*166 la_data_in[53]
*167 la_data_in[54]
*168 la_data_in[55]
*169 la_data_in[56]
*170 la_data_in[57]
*171 la_data_in[58]
*172 la_data_in[59]
*173 la_data_in[5]
*174 la_data_in[60]
*175 la_data_in[61]
*176 la_data_in[62]
*177 la_data_in[63]
*178 la_data_in[6]
*179 la_data_in[7]
*180 la_data_in[8]
*181 la_data_in[9]
*182 net190
*183 net200
*184 net201
*185 net202
*186 net203
*187 net204
*188 net205
*189 net206
*190 net207
*191 net208
*192 net209
*193 net191
*194 net210
*195 net211
*196 net212
*197 net213
*198 net214
*199 net215
*200 net216
*201 net217
*202 net218
*203 net219
*204 net192
*205 net220
*206 net221
*207 net222
*208 net223
*209 net224
*210 net225
*211 net226
*212 net227
*213 net228
*214 net229
*215 net193
*216 net230
*217 net231
*218 net232
*219 net233
*220 net234
*221 net235
*222 net236
*223 net237
*224 net238
*225 net239
*226 net194
*227 net240
*228 net241
*229 net242
*230 net243
*231 net244
*232 net245
*233 net246
*234 net247
*235 net248
*236 net249
*237 net195
*238 net250
*239 net251
*240 net252
*241 net253
*242 net196
*243 net197
*244 net198
*245 net199
*246 la_oenb[0]
*247 la_oenb[10]
*248 la_oenb[11]
*249 la_oenb[12]
*250 la_oenb[13]
*251 la_oenb[14]
*252 la_oenb[15]
*253 la_oenb[16]
*254 la_oenb[17]
*255 la_oenb[18]
*256 la_oenb[19]
*257 la_oenb[1]
*258 la_oenb[20]
*259 la_oenb[21]
*260 la_oenb[22]
*261 la_oenb[23]
*262 la_oenb[24]
*263 la_oenb[25]
*264 la_oenb[26]
*265 la_oenb[27]
*266 la_oenb[28]
*267 la_oenb[29]
*268 la_oenb[2]
*269 la_oenb[30]
*270 la_oenb[31]
*271 la_oenb[32]
*272 la_oenb[33]
*273 la_oenb[34]
*274 la_oenb[35]
*275 la_oenb[36]
*276 la_oenb[37]
*277 la_oenb[38]
*278 la_oenb[39]
*279 la_oenb[3]
*280 la_oenb[40]
*281 la_oenb[41]
*282 la_oenb[42]
*283 la_oenb[43]
*284 la_oenb[44]
*285 la_oenb[45]
*286 la_oenb[46]
*287 la_oenb[47]
*288 la_oenb[48]
*289 la_oenb[49]
*290 la_oenb[4]
*291 la_oenb[50]
*292 la_oenb[51]
*293 la_oenb[52]
*294 la_oenb[53]
*295 la_oenb[54]
*296 la_oenb[55]
*297 la_oenb[56]
*298 la_oenb[57]
*299 la_oenb[58]
*300 la_oenb[59]
*301 la_oenb[5]
*302 la_oenb[60]
*303 la_oenb[61]
*304 la_oenb[62]
*305 la_oenb[63]
*306 la_oenb[6]
*307 la_oenb[7]
*308 la_oenb[8]
*309 la_oenb[9]
*312 wb_clk_i
*313 wb_rst_i
*314 net254
*315 wbs_adr_i[0]
*316 wbs_adr_i[10]
*317 wbs_adr_i[11]
*318 wbs_adr_i[12]
*319 wbs_adr_i[13]
*320 wbs_adr_i[14]
*321 wbs_adr_i[15]
*322 wbs_adr_i[16]
*323 wbs_adr_i[17]
*324 wbs_adr_i[18]
*325 wbs_adr_i[19]
*326 wbs_adr_i[1]
*327 wbs_adr_i[20]
*328 wbs_adr_i[21]
*329 wbs_adr_i[22]
*330 wbs_adr_i[23]
*331 wbs_adr_i[24]
*332 wbs_adr_i[25]
*333 wbs_adr_i[26]
*334 wbs_adr_i[27]
*335 wbs_adr_i[28]
*336 wbs_adr_i[29]
*337 wbs_adr_i[2]
*338 wbs_adr_i[30]
*339 wbs_adr_i[31]
*340 wbs_adr_i[3]
*341 wbs_adr_i[4]
*342 wbs_adr_i[5]
*343 wbs_adr_i[6]
*344 wbs_adr_i[7]
*345 wbs_adr_i[8]
*346 wbs_adr_i[9]
*347 wbs_cyc_i
*348 wbs_dat_i[0]
*349 wbs_dat_i[10]
*350 wbs_dat_i[11]
*351 wbs_dat_i[12]
*352 wbs_dat_i[13]
*353 wbs_dat_i[14]
*354 wbs_dat_i[15]
*355 wbs_dat_i[16]
*356 wbs_dat_i[17]
*357 wbs_dat_i[18]
*358 wbs_dat_i[19]
*359 wbs_dat_i[1]
*360 wbs_dat_i[20]
*361 wbs_dat_i[21]
*362 wbs_dat_i[22]
*363 wbs_dat_i[23]
*364 wbs_dat_i[24]
*365 wbs_dat_i[25]
*366 wbs_dat_i[26]
*367 wbs_dat_i[27]
*368 wbs_dat_i[28]
*369 wbs_dat_i[29]
*370 wbs_dat_i[2]
*371 wbs_dat_i[30]
*372 wbs_dat_i[31]
*373 wbs_dat_i[3]
*374 wbs_dat_i[4]
*375 wbs_dat_i[5]
*376 wbs_dat_i[6]
*377 wbs_dat_i[7]
*378 wbs_dat_i[8]
*379 wbs_dat_i[9]
*380 net255
*381 net265
*382 net266
*383 net267
*384 net268
*385 net269
*386 net270
*387 net271
*388 net272
*389 net273
*390 net274
*391 net256
*392 net275
*393 net276
*394 net277
*395 net278
*396 net279
*397 net280
*398 net281
*399 net282
*400 net283
*401 net284
*402 net257
*403 net285
*404 net286
*405 net258
*406 net259
*407 net260
*408 net261
*409 net262
*410 net263
*411 net264
*412 wbs_sel_i[0]
*413 wbs_sel_i[1]
*414 wbs_sel_i[2]
*415 wbs_sel_i[3]
*416 wbs_stb_i
*417 wbs_we_i
*418 _0000_
*419 _0001_
*420 _0002_
*421 _0003_
*422 _0004_
*423 _0005_
*424 _0006_
*425 _0007_
*426 _0008_
*427 _0009_
*428 _0010_
*429 _0011_
*430 _0012_
*431 _0013_
*432 _0014_
*433 _0015_
*434 _0016_
*435 _0017_
*436 _0018_
*437 _0019_
*438 _0020_
*439 _0021_
*440 _0022_
*441 _0023_
*442 _0024_
*443 _0025_
*444 _0026_
*445 _0027_
*446 _0028_
*447 _0029_
*448 _0030_
*449 _0031_
*450 _0032_
*451 _0033_
*452 _0034_
*453 _0035_
*454 _0036_
*455 _0037_
*456 _0038_
*457 _0039_
*458 _0040_
*459 _0041_
*460 _0042_
*461 _0043_
*462 _0044_
*463 _0045_
*464 _0046_
*465 _0047_
*466 _0048_
*467 _0049_
*468 _0050_
*469 _0051_
*470 _0052_
*471 _0053_
*472 _0054_
*473 _0055_
*474 _0056_
*475 _0057_
*476 _0058_
*477 _0059_
*478 _0060_
*479 _0061_
*480 _0062_
*481 _0063_
*482 _0064_
*483 _0065_
*484 _0066_
*485 _0067_
*486 _0068_
*487 _0069_
*488 _0070_
*489 _0071_
*490 _0072_
*491 _0073_
*492 _0074_
*493 _0075_
*494 _0076_
*495 _0077_
*496 _0078_
*497 _0079_
*498 _0080_
*499 _0081_
*500 _0082_
*501 _0083_
*502 _0084_
*503 _0085_
*504 _0086_
*505 _0087_
*506 _0088_
*507 _0089_
*508 _0090_
*509 _0091_
*510 _0092_
*511 _0093_
*512 _0094_
*513 _0095_
*514 _0096_
*515 _0097_
*516 _0098_
*517 _0099_
*518 _0100_
*519 _0101_
*520 _0102_
*521 _0103_
*522 _0104_
*523 _0105_
*524 _0106_
*525 _0107_
*526 _0108_
*527 _0109_
*528 _0110_
*529 _0111_
*530 _0112_
*531 _0113_
*532 _0114_
*533 _0115_
*534 _0116_
*535 _0117_
*536 _0118_
*537 _0119_
*538 _0120_
*539 _0121_
*540 _0122_
*541 _0123_
*542 _0124_
*543 _0125_
*544 _0126_
*545 _0127_
*546 _0128_
*547 _0129_
*548 _0130_
*549 _0131_
*550 _0132_
*551 _0133_
*552 _0134_
*553 _0135_
*554 _0136_
*555 _0137_
*556 _0138_
*557 _0139_
*558 _0140_
*559 _0141_
*560 _0142_
*561 _0143_
*562 _0144_
*563 _0145_
*564 _0146_
*565 _0147_
*566 _0148_
*567 _0149_
*568 _0150_
*569 _0151_
*570 _0152_
*571 _0153_
*572 _0154_
*573 _0155_
*574 _0156_
*575 _0157_
*576 _0158_
*577 _0159_
*578 _0160_
*579 _0161_
*580 _0162_
*581 _0163_
*582 _0164_
*583 _0165_
*584 _0166_
*585 _0167_
*586 _0168_
*587 _0169_
*588 _0170_
*589 _0171_
*590 _0172_
*591 _0173_
*592 _0174_
*593 _0175_
*594 _0176_
*595 _0177_
*596 _0178_
*597 _0179_
*598 _0180_
*599 _0181_
*600 _0182_
*601 _0183_
*602 _0184_
*603 _0185_
*604 _0186_
*605 _0187_
*606 _0188_
*607 _0189_
*608 _0190_
*609 _0191_
*610 _0192_
*611 _0193_
*612 _0194_
*613 _0195_
*614 _0196_
*615 _0197_
*616 _0198_
*617 _0199_
*618 _0200_
*619 _0201_
*620 _0202_
*621 _0203_
*622 _0204_
*623 _0205_
*624 _0206_
*625 _0207_
*626 _0208_
*627 _0209_
*628 _0210_
*629 _0211_
*630 _0212_
*631 _0213_
*632 _0214_
*633 _0215_
*634 _0216_
*635 _0217_
*636 _0218_
*637 _0219_
*638 _0220_
*639 _0221_
*640 _0222_
*641 _0223_
*642 _0224_
*643 _0225_
*644 _0226_
*645 _0227_
*646 _0228_
*647 _0229_
*648 _0230_
*649 _0235_
*650 _0236_
*651 _0237_
*652 _0238_
*653 _0239_
*654 _0240_
*655 _0241_
*656 _0242_
*657 _0243_
*658 _0244_
*659 _0245_
*660 _0246_
*661 _0247_
*662 _0248_
*663 _0249_
*664 _0250_
*665 _0255_
*666 _0256_
*667 _0257_
*668 _0258_
*669 _0259_
*670 _0260_
*671 _0261_
*672 _0262_
*673 _0263_
*674 _0264_
*675 _0265_
*676 _0266_
*677 _0267_
*678 _0268_
*679 _0269_
*680 _0270_
*681 _0271_
*682 _0272_
*683 _0273_
*684 _0274_
*685 _0275_
*686 _0276_
*687 _0277_
*688 _0278_
*689 _0279_
*690 _0280_
*691 _0281_
*692 _0282_
*693 _0283_
*694 _0284_
*695 _0285_
*696 _0286_
*697 _0287_
*698 _0288_
*699 _0289_
*700 _0290_
*701 _0291_
*702 _0292_
*703 _0293_
*704 _0294_
*705 _0295_
*706 _0296_
*707 _0297_
*708 _0298_
*709 _0299_
*710 _0300_
*711 _0301_
*712 _0302_
*713 _0303_
*714 _0304_
*715 _0305_
*716 _0306_
*717 _0307_
*718 _0308_
*719 _0309_
*720 _0310_
*721 _0311_
*722 _0312_
*723 _0313_
*724 _0314_
*725 _0315_
*726 _0316_
*727 _0317_
*728 _0318_
*729 _0319_
*730 _0320_
*731 _0321_
*732 _0322_
*733 _0323_
*734 _0324_
*735 _0325_
*736 _0326_
*737 _0327_
*738 _0328_
*739 _0329_
*740 _0330_
*741 _0331_
*742 _0332_
*743 _0333_
*744 _0334_
*745 _0335_
*746 _0336_
*747 _0337_
*748 _0338_
*749 _0339_
*750 _0340_
*751 _0341_
*752 _0342_
*753 _0343_
*754 _0344_
*755 _0345_
*756 _0346_
*757 _0347_
*758 _0348_
*759 _0349_
*760 _0350_
*761 _0351_
*762 _0352_
*763 _0353_
*764 _0354_
*765 _0355_
*766 _0356_
*767 _0357_
*768 _0358_
*769 _0359_
*770 _0360_
*771 _0361_
*772 _0362_
*773 _0363_
*774 _0364_
*775 _0365_
*776 _0366_
*777 _0367_
*778 _0368_
*779 _0369_
*780 _0370_
*781 _0371_
*782 _0372_
*783 _0373_
*784 _0374_
*785 _0375_
*786 _0376_
*787 _0377_
*788 _0378_
*789 _0379_
*790 _0380_
*791 _0381_
*792 _0382_
*793 _0383_
*794 _0384_
*795 _0385_
*796 _0386_
*797 _0387_
*798 _0388_
*799 _0389_
*800 _0390_
*801 _0391_
*802 _0392_
*803 _0393_
*804 _0394_
*805 _0395_
*806 _0396_
*807 _0397_
*808 _0398_
*809 _0399_
*810 _0400_
*811 _0401_
*812 _0402_
*813 _0403_
*814 _0404_
*815 _0405_
*816 _0406_
*817 _0407_
*818 _0408_
*819 _0409_
*820 _0410_
*821 _0411_
*822 _0412_
*823 _0413_
*824 _0414_
*825 _0415_
*826 _0416_
*827 _0417_
*828 _0418_
*829 _0419_
*830 _0420_
*831 _0421_
*832 _0422_
*833 _0423_
*834 _0424_
*835 _0425_
*836 _0426_
*837 _0427_
*838 _0428_
*839 _0429_
*840 _0430_
*841 _0431_
*842 _0432_
*843 _0433_
*844 _0434_
*845 _0435_
*846 _0436_
*847 _0437_
*848 _0438_
*849 _0439_
*850 _0440_
*851 _0441_
*852 _0442_
*853 _0443_
*854 _0444_
*855 _0445_
*856 _0446_
*857 _0447_
*858 _0448_
*859 _0449_
*860 _0450_
*861 _0451_
*862 _0452_
*863 _0453_
*864 _0454_
*865 _0455_
*866 _0456_
*867 _0457_
*868 _0458_
*869 _0459_
*870 _0460_
*871 _0461_
*872 _0462_
*873 _0463_
*874 _0464_
*875 _0465_
*876 _0466_
*877 _0467_
*878 _0468_
*879 _0469_
*880 _0470_
*881 _0471_
*882 _0472_
*883 _0473_
*884 _0474_
*885 _0475_
*886 _0476_
*887 _0477_
*888 _0478_
*889 _0479_
*890 _0480_
*891 _0481_
*892 _0482_
*893 _0483_
*894 _0484_
*895 _0485_
*896 _0486_
*897 _0487_
*898 _0488_
*899 _0489_
*900 _0490_
*901 _0491_
*902 _0492_
*903 _0493_
*904 _0494_
*905 _0495_
*906 _0496_
*907 _0497_
*908 _0498_
*909 _0499_
*910 _0500_
*911 _0501_
*912 _0502_
*913 _0503_
*914 _0504_
*915 _0505_
*916 _0506_
*917 _0507_
*918 _0508_
*919 _0509_
*920 _0510_
*921 _0511_
*922 _0512_
*923 _0513_
*924 _0514_
*925 _0515_
*926 _0516_
*927 _0517_
*928 _0518_
*929 _0519_
*930 _0520_
*931 _0521_
*932 _0522_
*933 _0523_
*934 _0524_
*935 _0525_
*936 _0526_
*937 _0527_
*938 _0528_
*939 _0529_
*940 _0530_
*941 _0531_
*942 _0532_
*943 _0533_
*944 _0534_
*945 _0535_
*946 _0536_
*947 _0537_
*948 _0538_
*949 _0539_
*950 _0540_
*951 _0541_
*952 _0542_
*953 _0543_
*954 _0544_
*955 _0545_
*956 _0546_
*957 _0547_
*958 _0548_
*959 _0549_
*960 _0550_
*961 _0551_
*962 _0552_
*963 _0553_
*964 _0554_
*965 _0555_
*966 _0556_
*967 _0557_
*968 _0558_
*969 _0559_
*970 _0560_
*971 _0561_
*972 _0562_
*973 _0563_
*974 _0564_
*975 _0565_
*976 _0566_
*977 _0567_
*978 _0568_
*979 _0569_
*980 _0570_
*981 _0571_
*982 _0572_
*983 _0573_
*984 _0574_
*985 _0575_
*986 _0576_
*987 _0577_
*988 _0578_
*989 _0579_
*990 _0580_
*991 _0581_
*992 _0582_
*993 _0583_
*994 _0584_
*995 _0585_
*996 _0586_
*997 _0587_
*998 _0588_
*999 _0589_
*1000 _0590_
*1001 _0591_
*1002 _0592_
*1003 _0593_
*1004 _0594_
*1005 _0595_
*1006 _0596_
*1007 _0597_
*1008 _0598_
*1009 _0599_
*1010 _0600_
*1011 _0601_
*1012 _0602_
*1013 _0603_
*1014 _0604_
*1015 _0605_
*1016 _0606_
*1017 _0607_
*1018 _0608_
*1019 _0609_
*1020 _0610_
*1021 _0611_
*1022 _0612_
*1023 _0613_
*1024 _0614_
*1025 _0615_
*1026 _0616_
*1027 _0617_
*1028 _0618_
*1029 _0619_
*1030 _0620_
*1031 _0621_
*1032 _0622_
*1033 _0623_
*1034 _0624_
*1035 _0625_
*1036 _0626_
*1037 _0627_
*1038 _0628_
*1039 _0629_
*1040 _0630_
*1041 _0631_
*1042 _0632_
*1043 _0633_
*1044 _0634_
*1045 _0635_
*1046 _0636_
*1047 _0637_
*1048 _0638_
*1049 _0639_
*1050 _0640_
*1051 _0641_
*1052 _0642_
*1053 _0643_
*1054 _0644_
*1055 _0645_
*1056 _0646_
*1057 _0647_
*1058 _0648_
*1059 _0649_
*1060 _0650_
*1061 _0651_
*1062 _0652_
*1063 _0653_
*1064 _0654_
*1065 _0655_
*1066 _0656_
*1067 _0657_
*1068 _0658_
*1069 _0659_
*1070 _0660_
*1071 _0661_
*1072 _0662_
*1073 _0663_
*1074 _0664_
*1075 _0665_
*1076 _0666_
*1077 _0667_
*1078 _0668_
*1079 _0669_
*1080 _0670_
*1081 _0671_
*1082 _0672_
*1083 _0673_
*1084 _0674_
*1085 _0675_
*1086 _0676_
*1087 _0677_
*1088 _0678_
*1089 _0679_
*1090 _0680_
*1091 _0681_
*1092 _0682_
*1093 _0683_
*1094 _0684_
*1095 _0685_
*1096 _0686_
*1097 _0687_
*1098 _0688_
*1099 _0689_
*1100 _0690_
*1101 _0691_
*1102 _0692_
*1103 _0693_
*1104 _0694_
*1105 _0695_
*1106 _0696_
*1107 _0697_
*1108 _0698_
*1109 _0699_
*1110 _0700_
*1111 _0701_
*1112 _0702_
*1113 _0703_
*1114 _0704_
*1115 _0705_
*1116 _0706_
*1117 _0707_
*1118 _0708_
*1119 _0709_
*1120 _0710_
*1121 _0711_
*1122 _0712_
*1123 _0713_
*1124 _0714_
*1125 _0715_
*1126 _0716_
*1127 _0717_
*1128 _0718_
*1129 _0719_
*1130 _0720_
*1131 _0721_
*1132 _0722_
*1133 _0723_
*1134 _0724_
*1135 _0725_
*1136 _0726_
*1137 _0727_
*1138 _0728_
*1139 _0729_
*1140 _0730_
*1141 _0731_
*1142 _0732_
*1143 _0733_
*1144 _0734_
*1145 _0735_
*1146 _0736_
*1147 _0737_
*1148 _0738_
*1149 _0739_
*1150 _0740_
*1151 _0741_
*1152 _0742_
*1153 _0743_
*1154 _0744_
*1155 _0745_
*1156 _0746_
*1157 _0747_
*1158 _0748_
*1159 _0749_
*1160 _0750_
*1161 _0751_
*1162 _0752_
*1163 _0753_
*1164 _0754_
*1165 _0755_
*1166 _0756_
*1167 _0757_
*1168 _0758_
*1169 _0759_
*1170 _0760_
*1171 _0761_
*1172 _0762_
*1173 _0763_
*1174 _0764_
*1175 _0765_
*1176 _0766_
*1177 _0767_
*1178 _0768_
*1179 _0769_
*1180 _0770_
*1181 _0771_
*1182 _0772_
*1183 _0773_
*1184 _0774_
*1185 _0775_
*1186 _0776_
*1187 _0777_
*1188 _0778_
*1189 _0779_
*1190 _0780_
*1191 _0781_
*1192 _0782_
*1193 _0783_
*1194 _0784_
*1195 _0785_
*1196 _0786_
*1197 _0787_
*1198 _0788_
*1199 _0789_
*1200 _0790_
*1201 _0791_
*1202 _0792_
*1203 _0793_
*1204 _0794_
*1205 _0795_
*1206 _0796_
*1207 _0797_
*1208 _0798_
*1209 _0799_
*1210 _0800_
*1211 _0801_
*1212 _0802_
*1213 _0803_
*1214 _0804_
*1215 _0805_
*1216 _0806_
*1217 _0807_
*1218 _0808_
*1219 _0809_
*1220 _0810_
*1221 _0811_
*1222 _0812_
*1223 _0813_
*1224 _0814_
*1225 _0815_
*1226 _0816_
*1227 _0817_
*1228 _0818_
*1229 _0819_
*1230 _0820_
*1231 _0821_
*1232 _0822_
*1233 _0823_
*1234 _0824_
*1235 _0825_
*1236 _0826_
*1237 _0827_
*1238 _0828_
*1239 _0829_
*1240 _0830_
*1241 _0831_
*1242 _0832_
*1243 _0833_
*1244 _0834_
*1245 _0835_
*1246 _0836_
*1247 _0837_
*1248 _0838_
*1249 _0839_
*1250 _0840_
*1251 _0841_
*1252 _0842_
*1253 _0843_
*1254 _0844_
*1255 _0845_
*1256 _0846_
*1257 _0847_
*1258 _0848_
*1259 _0849_
*1260 _0850_
*1261 _0851_
*1262 _0852_
*1263 _0853_
*1264 _0854_
*1265 _0855_
*1266 _0856_
*1267 _0857_
*1268 _0858_
*1269 _0859_
*1270 _0860_
*1271 _0861_
*1272 _0862_
*1273 _0863_
*1274 _0864_
*1275 _0865_
*1276 _0866_
*1277 _0867_
*1278 _0868_
*1279 _0869_
*1280 _0870_
*1281 _0871_
*1282 _0872_
*1283 _0873_
*1284 _0874_
*1285 _0875_
*1286 _0876_
*1287 _0877_
*1288 _0878_
*1289 _0879_
*1290 _0880_
*1291 _0881_
*1292 _0882_
*1293 _0883_
*1294 _0884_
*1295 _0885_
*1296 _0886_
*1297 _0887_
*1298 _0888_
*1299 _0889_
*1300 _0890_
*1301 _0891_
*1302 _0892_
*1303 _0893_
*1304 _0894_
*1305 _0895_
*1306 _0896_
*1307 _0897_
*1308 _0898_
*1309 _0899_
*1310 _0900_
*1311 _0901_
*1312 _0902_
*1313 _0903_
*1314 _0904_
*1315 _0905_
*1316 _0906_
*1317 _0907_
*1318 _0908_
*1319 _0909_
*1320 _0910_
*1321 _0911_
*1322 _0912_
*1323 _0913_
*1324 _0914_
*1325 _0915_
*1326 _0916_
*1327 _0917_
*1328 _0918_
*1329 _0919_
*1330 _0920_
*1331 _0921_
*1332 _0922_
*1333 _0923_
*1334 _0924_
*1335 _0925_
*1336 _0926_
*1337 _0927_
*1338 _0928_
*1339 _0929_
*1340 _0930_
*1341 _0931_
*1342 _0932_
*1343 _0933_
*1344 _0934_
*1345 _0935_
*1346 _0936_
*1347 _0937_
*1348 _0938_
*1349 _0939_
*1350 _0940_
*1351 _0941_
*1352 _0942_
*1353 _0943_
*1354 _0944_
*1355 _0945_
*1356 _0946_
*1357 _0947_
*1358 _0948_
*1359 _0949_
*1360 _0950_
*1361 _0951_
*1362 _0952_
*1363 _0953_
*1364 _0954_
*1365 _0955_
*1366 _0956_
*1367 _0957_
*1368 _0958_
*1369 _0959_
*1370 _0960_
*1371 _0961_
*1372 _0962_
*1373 _0963_
*1374 _0964_
*1375 _0965_
*1376 _0966_
*1377 _0967_
*1378 _0968_
*1379 _0969_
*1380 _0970_
*1381 _0971_
*1382 _0972_
*1383 _0973_
*1384 _0974_
*1385 _0975_
*1386 _0976_
*1387 _0977_
*1388 _0978_
*1389 _0979_
*1390 _0980_
*1391 _0981_
*1392 _0982_
*1393 _0983_
*1394 _0984_
*1395 _0985_
*1396 _0986_
*1397 _0987_
*1398 _0988_
*1399 _0989_
*1400 _0990_
*1401 _0991_
*1402 _0992_
*1403 _0993_
*1404 _0994_
*1405 _0995_
*1406 _0996_
*1407 _0997_
*1408 _0998_
*1409 _0999_
*1410 _1000_
*1411 _1001_
*1412 _1002_
*1413 _1003_
*1414 _1004_
*1415 _1005_
*1416 _1006_
*1417 _1007_
*1418 _1008_
*1419 _1009_
*1420 _1010_
*1421 _1011_
*1422 _1012_
*1423 _1013_
*1424 _1014_
*1425 _1015_
*1426 _1016_
*1427 _1017_
*1428 _1018_
*1429 _1019_
*1430 _1020_
*1431 _1021_
*1432 _1022_
*1433 _1023_
*1434 _1024_
*1435 _1025_
*1436 _1026_
*1437 _1027_
*1438 _1028_
*1439 _1029_
*1440 _1030_
*1441 _1031_
*1442 _1032_
*1443 _1033_
*1444 _1034_
*1445 _1035_
*1446 _1036_
*1447 _1037_
*1448 _1038_
*1449 _1039_
*1450 _1040_
*1451 _1041_
*1452 _1042_
*1453 _1043_
*1454 _1044_
*1455 _1045_
*1456 _1046_
*1457 _1047_
*1458 _1048_
*1459 _1049_
*1460 _1050_
*1461 _1051_
*1462 _1052_
*1463 _1053_
*1464 _1054_
*1465 _1055_
*1466 _1056_
*1467 _1057_
*1468 _1058_
*1469 _1059_
*1470 _1060_
*1471 _1061_
*1472 _1062_
*1473 _1063_
*1474 _1064_
*1475 _1065_
*1476 _1066_
*1477 _1067_
*1478 _1068_
*1479 _1069_
*1480 _1070_
*1481 _1071_
*1482 _1072_
*1483 _1073_
*1484 _1074_
*1485 _1075_
*1486 _1076_
*1487 _1077_
*1488 _1078_
*1489 _1079_
*1490 _1080_
*1491 _1081_
*1492 _1082_
*1493 _1083_
*1494 _1084_
*1495 _1085_
*1496 _1086_
*1497 _1087_
*1498 _1088_
*1499 _1089_
*1500 _1090_
*1501 _1091_
*1502 _1092_
*1503 _1093_
*1504 _1094_
*1505 _1095_
*1506 _1096_
*1507 _1097_
*1508 _1098_
*1509 _1099_
*1510 _1100_
*1511 _1101_
*1512 _1102_
*1513 _1103_
*1514 _1104_
*1515 _1105_
*1516 _1106_
*1517 _1107_
*1518 _1108_
*1519 _1109_
*1520 _1110_
*1521 _1111_
*1522 _1112_
*1523 _1113_
*1524 _1114_
*1525 _1115_
*1526 _1116_
*1527 _1117_
*1528 _1118_
*1529 _1119_
*1530 _1120_
*1531 _1121_
*1532 _1122_
*1533 _1123_
*1534 _1124_
*1535 _1125_
*1536 _1126_
*1537 _1127_
*1538 _1128_
*1539 _1129_
*1540 _1130_
*1541 _1131_
*1542 _1132_
*1543 _1133_
*1544 _1134_
*1545 _1135_
*1546 _1136_
*1547 _1137_
*1548 _1138_
*1549 _1139_
*1550 _1140_
*1551 _1141_
*1552 _1142_
*1553 _1143_
*1554 _1144_
*1555 _1145_
*1556 _1146_
*1557 _1147_
*1558 _1148_
*1559 _1149_
*1560 _1150_
*1561 _1151_
*1562 _1152_
*1563 _1153_
*1564 _1154_
*1565 _1155_
*1566 _1156_
*1567 _1157_
*1568 _1158_
*1569 _1159_
*1570 _1160_
*1571 _1161_
*1572 _1162_
*1573 _1163_
*1574 _1164_
*1575 _1165_
*1576 _1166_
*1577 _1167_
*1578 _1168_
*1579 _1169_
*1580 _1170_
*1581 _1171_
*1582 _1172_
*1583 _1173_
*1584 _1174_
*1585 _1175_
*1586 _1176_
*1587 _1177_
*1588 _1178_
*1589 _1179_
*1590 _1180_
*1591 _1181_
*1592 _1182_
*1593 _1183_
*1594 _1184_
*1595 _1185_
*1596 _1186_
*1597 _1187_
*1598 _1188_
*1599 _1189_
*1600 _1190_
*1601 _1191_
*1602 _1192_
*1603 _1193_
*1604 _1194_
*1605 _1195_
*1606 _1196_
*1607 _1197_
*1608 _1198_
*1609 _1199_
*1610 _1200_
*1611 _1201_
*1612 _1202_
*1613 _1203_
*1614 _1204_
*1615 _1205_
*1616 _1206_
*1617 _1207_
*1618 _1208_
*1619 _1209_
*1620 _1210_
*1621 _1211_
*1622 _1212_
*1623 _1213_
*1624 _1214_
*1625 _1215_
*1626 _1216_
*1627 _1217_
*1628 _1218_
*1629 _1219_
*1630 _1220_
*1631 _1221_
*1632 _1222_
*1633 _1223_
*1634 _1224_
*1635 _1225_
*1636 _1226_
*1637 _1227_
*1638 _1228_
*1639 _1229_
*1640 _1230_
*1641 _1231_
*1642 _1232_
*1643 _1233_
*1644 _1234_
*1645 _1235_
*1646 _1236_
*1647 _1237_
*1648 _1238_
*1649 _1239_
*1650 _1240_
*1651 _1241_
*1652 _1242_
*1653 _1243_
*1654 _1244_
*1655 _1245_
*1656 _1246_
*1657 _1247_
*1658 _1248_
*1659 _1249_
*1660 _1250_
*1661 _1251_
*1662 _1252_
*1663 _1253_
*1664 _1254_
*1665 _1255_
*1666 _1256_
*1667 _1257_
*1668 _1258_
*1669 _1259_
*1670 _1260_
*1671 _1261_
*1672 _1262_
*1673 _1263_
*1674 _1264_
*1675 _1265_
*1676 _1266_
*1677 _1267_
*1678 _1268_
*1679 _1269_
*1680 _1270_
*1681 _1271_
*1682 _1272_
*1683 _1273_
*1684 _1274_
*1685 _1275_
*1686 _1276_
*1687 _1277_
*1688 _1278_
*1689 _1279_
*1690 _1280_
*1691 _1281_
*1692 _1282_
*1693 _1283_
*1694 _1284_
*1695 _1285_
*1696 _1286_
*1697 _1287_
*1698 _1288_
*1699 _1289_
*1700 _1290_
*1701 _1291_
*1702 _1292_
*1703 _1293_
*1704 _1294_
*1705 _1295_
*1706 _1296_
*1707 _1297_
*1708 _1298_
*1709 _1299_
*1710 _1300_
*1711 _1301_
*1712 _1302_
*1713 _1303_
*1714 _1304_
*1715 _1305_
*1716 _1306_
*1717 _1307_
*1718 _1308_
*1719 _1309_
*1720 _1310_
*1721 _1311_
*1722 _1312_
*1723 _1313_
*1724 _1314_
*1725 _1315_
*1726 _1316_
*1727 _1317_
*1728 _1318_
*1729 _1319_
*1730 _1320_
*1731 _1321_
*1732 _1322_
*1733 _1323_
*1734 _1324_
*1735 _1325_
*1736 _1326_
*1737 _1327_
*1738 _1328_
*1739 _1329_
*1740 _1330_
*1741 _1331_
*1742 _1332_
*1743 _1333_
*1744 _1334_
*1745 _1335_
*1746 _1336_
*1747 _1337_
*1748 _1338_
*1749 _1339_
*1750 _1340_
*1751 _1341_
*1752 _1342_
*1753 _1343_
*1754 _1344_
*1755 _1345_
*1756 _1346_
*1757 _1347_
*1758 _1348_
*1759 _1349_
*1760 _1350_
*1761 _1351_
*1762 _1352_
*1763 _1353_
*1764 _1354_
*1765 _1355_
*1766 _1356_
*1767 _1357_
*1768 _1358_
*1769 _1359_
*1770 _1360_
*1771 _1361_
*1772 _1362_
*1773 _1363_
*1774 _1364_
*1775 _1365_
*1776 _1366_
*1777 _1367_
*1778 _1368_
*1779 _1369_
*1780 _1370_
*1781 _1371_
*1782 _1372_
*1783 _1373_
*1784 _1374_
*1785 _1375_
*1786 _1376_
*1787 _1377_
*1788 _1378_
*1789 _1379_
*1790 _1380_
*1791 _1381_
*1792 _1382_
*1793 _1383_
*1794 _1384_
*1795 _1385_
*1796 _1386_
*1797 _1387_
*1798 _1388_
*1799 _1389_
*1800 _1390_
*1801 _1391_
*1802 _1392_
*1803 _1393_
*1804 _1394_
*1805 _1395_
*1806 _1396_
*1807 _1397_
*1808 _1398_
*1809 _1399_
*1810 _1400_
*1811 _1401_
*1812 _1402_
*1813 _1403_
*1814 _1404_
*1815 _1405_
*1816 _1406_
*1817 _1407_
*1818 _1408_
*1819 _1409_
*1820 _1410_
*1821 _1411_
*1822 _1412_
*1823 _1413_
*1824 _1414_
*1825 _1415_
*1826 _1416_
*1827 _1417_
*1828 _1418_
*1829 _1419_
*1830 _1420_
*1831 _1421_
*1832 _1422_
*1833 _1423_
*1834 _1424_
*1835 _1425_
*1836 _1426_
*1837 _1427_
*1838 _1428_
*1839 _1429_
*1840 _1430_
*1841 _1431_
*1842 _1432_
*1843 _1433_
*1844 _1434_
*1845 _1435_
*1846 _1436_
*1847 _1437_
*1848 _1438_
*1849 _1439_
*1850 _1440_
*1851 _1441_
*1852 _1442_
*1853 _1443_
*1854 _1444_
*1855 _1445_
*1856 _1446_
*1857 _1447_
*1858 _1448_
*1859 _1449_
*1860 _1450_
*1861 _1451_
*1862 _1452_
*1863 _1453_
*1864 _1454_
*1865 _1455_
*1866 _1456_
*1867 _1457_
*1868 _1458_
*1869 _1459_
*1870 _1460_
*1871 _1461_
*1872 _1462_
*1873 _1463_
*1874 _1464_
*1875 _1465_
*1876 _1466_
*1877 _1467_
*1878 _1468_
*1879 _1469_
*1880 _1470_
*1881 _1471_
*1882 _1472_
*1883 _1473_
*1884 _1474_
*1885 _1475_
*1886 _1476_
*1887 _1477_
*1888 _1478_
*1889 _1479_
*1890 _1480_
*1891 _1481_
*1892 _1482_
*1893 _1483_
*1894 _1484_
*1895 _1485_
*1896 _1486_
*1897 _1487_
*1898 _1488_
*1899 _1489_
*1900 _1490_
*1901 _1491_
*1902 _1492_
*1903 _1493_
*1904 _1494_
*1905 _1495_
*1906 _1496_
*1907 _1497_
*1908 _1498_
*1909 _1499_
*1910 _1500_
*1911 _1501_
*1912 _1502_
*1913 _1503_
*1914 _1504_
*1915 _1505_
*1916 _1506_
*1917 _1507_
*1918 _1508_
*1919 _1509_
*1920 _1510_
*1921 _1511_
*1922 _1512_
*1923 _1513_
*1924 _1514_
*1925 _1515_
*1926 _1516_
*1927 _1517_
*1928 _1518_
*1929 _1519_
*1930 _1520_
*1931 beepboop\.inst\.counter\[0\]
*1932 beepboop\.inst\.counter\[10\]
*1933 beepboop\.inst\.counter\[11\]
*1934 beepboop\.inst\.counter\[12\]
*1935 beepboop\.inst\.counter\[13\]
*1936 beepboop\.inst\.counter\[14\]
*1937 beepboop\.inst\.counter\[15\]
*1938 beepboop\.inst\.counter\[1\]
*1939 beepboop\.inst\.counter\[2\]
*1940 beepboop\.inst\.counter\[3\]
*1941 beepboop\.inst\.counter\[4\]
*1942 beepboop\.inst\.counter\[5\]
*1943 beepboop\.inst\.counter\[6\]
*1944 beepboop\.inst\.counter\[7\]
*1945 beepboop\.inst\.counter\[8\]
*1946 beepboop\.inst\.counter\[9\]
*1947 clknet_0_wb_clk_i
*1948 clknet_1_0__leaf_wb_clk_i
*1949 clknet_1_1__leaf_wb_clk_i
*1950 net1
*1951 net10
*1952 net100
*1953 net101
*1954 net102
*1955 net103
*1956 net104
*1957 net105
*1958 net106
*1959 net107
*1960 net108
*1961 net109
*1962 net11
*1963 net110
*1964 net111
*1965 net112
*1966 net113
*1967 net114
*1968 net115
*1969 net116
*1970 net117
*1971 net118
*1972 net119
*1973 net12
*1974 net120
*1975 net121
*1976 net122
*1977 net123
*1978 net124
*1979 net125
*1980 net126
*1981 net127
*1982 net13
*1983 net14
*1984 net15
*1985 net16
*1986 net17
*1987 net18
*1988 net19
*1989 net2
*1990 net20
*1991 net21
*1992 net22
*1993 net23
*1994 net24
*1995 net25
*1996 net26
*1997 net27
*1998 net28
*1999 net287
*2000 net288
*2001 net289
*2002 net29
*2003 net290
*2004 net291
*2005 net292
*2006 net293
*2007 net294
*2008 net3
*2009 net30
*2010 net31
*2011 net32
*2012 net33
*2013 net34
*2014 net35
*2015 net36
*2016 net37
*2017 net38
*2018 net39
*2019 net4
*2020 net40
*2021 net41
*2022 net42
*2023 net43
*2024 net44
*2025 net45
*2026 net46
*2027 net47
*2028 net48
*2029 net49
*2030 net5
*2031 net50
*2032 net51
*2033 net52
*2034 net53
*2035 net54
*2036 net55
*2037 net56
*2038 net57
*2039 net58
*2040 net59
*2041 net6
*2042 net60
*2043 net61
*2044 net62
*2045 net63
*2046 net64
*2047 net65
*2048 net66
*2049 net67
*2050 net68
*2051 net69
*2052 net7
*2053 net70
*2054 net71
*2055 net72
*2056 net73
*2057 net74
*2058 net75
*2059 net76
*2060 net77
*2061 net78
*2062 net79
*2063 net8
*2064 net80
*2065 net81
*2066 net82
*2067 net83
*2068 net84
*2069 net85
*2070 net86
*2071 net87
*2072 net88
*2073 net89
*2074 net9
*2075 net90
*2076 net91
*2077 net92
*2078 net93
*2079 net94
*2080 net95
*2081 net96
*2082 net97
*2083 net98
*2084 net99
*2085 ttA_0\.data\[0\]\[0\]
*2086 ttA_0\.data\[0\]\[1\]
*2087 ttA_0\.data\[0\]\[2\]
*2088 ttA_0\.data\[0\]\[3\]
*2089 ttA_0\.data\[10\]\[0\]
*2090 ttA_0\.data\[10\]\[1\]
*2091 ttA_0\.data\[10\]\[2\]
*2092 ttA_0\.data\[10\]\[3\]
*2093 ttA_0\.data\[11\]\[0\]
*2094 ttA_0\.data\[11\]\[1\]
*2095 ttA_0\.data\[11\]\[2\]
*2096 ttA_0\.data\[11\]\[3\]
*2097 ttA_0\.data\[12\]\[0\]
*2098 ttA_0\.data\[12\]\[1\]
*2099 ttA_0\.data\[12\]\[2\]
*2100 ttA_0\.data\[12\]\[3\]
*2101 ttA_0\.data\[13\]\[0\]
*2102 ttA_0\.data\[13\]\[1\]
*2103 ttA_0\.data\[13\]\[2\]
*2104 ttA_0\.data\[13\]\[3\]
*2105 ttA_0\.data\[14\]\[0\]
*2106 ttA_0\.data\[14\]\[1\]
*2107 ttA_0\.data\[14\]\[2\]
*2108 ttA_0\.data\[14\]\[3\]
*2109 ttA_0\.data\[15\]\[0\]
*2110 ttA_0\.data\[15\]\[1\]
*2111 ttA_0\.data\[15\]\[2\]
*2112 ttA_0\.data\[15\]\[3\]
*2113 ttA_0\.data\[1\]\[0\]
*2114 ttA_0\.data\[1\]\[1\]
*2115 ttA_0\.data\[1\]\[2\]
*2116 ttA_0\.data\[1\]\[3\]
*2117 ttA_0\.data\[2\]\[0\]
*2118 ttA_0\.data\[2\]\[1\]
*2119 ttA_0\.data\[2\]\[2\]
*2120 ttA_0\.data\[2\]\[3\]
*2121 ttA_0\.data\[3\]\[0\]
*2122 ttA_0\.data\[3\]\[1\]
*2123 ttA_0\.data\[3\]\[2\]
*2124 ttA_0\.data\[3\]\[3\]
*2125 ttA_0\.data\[4\]\[0\]
*2126 ttA_0\.data\[4\]\[1\]
*2127 ttA_0\.data\[4\]\[2\]
*2128 ttA_0\.data\[4\]\[3\]
*2129 ttA_0\.data\[5\]\[0\]
*2130 ttA_0\.data\[5\]\[1\]
*2131 ttA_0\.data\[5\]\[2\]
*2132 ttA_0\.data\[5\]\[3\]
*2133 ttA_0\.data\[6\]\[0\]
*2134 ttA_0\.data\[6\]\[1\]
*2135 ttA_0\.data\[6\]\[2\]
*2136 ttA_0\.data\[6\]\[3\]
*2137 ttA_0\.data\[7\]\[0\]
*2138 ttA_0\.data\[7\]\[1\]
*2139 ttA_0\.data\[7\]\[2\]
*2140 ttA_0\.data\[7\]\[3\]
*2141 ttA_0\.data\[8\]\[0\]
*2142 ttA_0\.data\[8\]\[1\]
*2143 ttA_0\.data\[8\]\[2\]
*2144 ttA_0\.data\[8\]\[3\]
*2145 ttA_0\.data\[9\]\[0\]
*2146 ttA_0\.data\[9\]\[1\]
*2147 ttA_0\.data\[9\]\[2\]
*2148 ttA_0\.data\[9\]\[3\]
*2149 ttA_0\.io_out\[0\]
*2150 ttA_0\.io_out\[1\]
*2151 ttA_0\.io_out\[2\]
*2152 ttA_0\.io_out\[3\]
*2153 ttA_0\.io_out\[4\]
*2154 ttA_0\.io_out\[5\]
*2155 ttA_0\.io_out\[6\]